tests/data/state_estimation/link/asym_output.json
{
  "version": "1.0",
  "type": "asym_output",
  "is_batch": false,
  "attributes": {},
  "data": {
    "node": [
      {
        "id": 30,
        "energized": 1,
        "u_pu": [
          1.0000000100640516,
          1.0000000100640518,
          1.0000000100640518
        ],
        "u": [
          230.94011000004346,
          230.94011000004352,
          230.94011000004352
        ],
        "u_angle": [
          -3.607050966088345e-05,
          -2.0944311729028566,
          2.094359031883535
        ],
        "p": [
          0.0,
          0.0,
          0.0
        ],
        "q": [
          0.0,
          0.0,
          0.0
        ]
      },
      {
        "id": 90,
        "energized": 1,
        "u_pu": [
          1.0000101195612183,
          1.0000101195612185,
          1.0000101195612183
        ],
        "u": [
          5773.561117210193,
          5773.5611172101935,
          5773.561117210193
        ],
        "u_angle": [
          -6.776195005914213e-21,
          -2.0943951023931957,
          2.0943951023931957
        ],
        "p": [
          393.3371191683295,
          393.3470529602459,
          393.3371187874935
        ],
        "q": [
          0.01021243921305726,
          0.0002790465936601411,
          0.005245307208308481
        ]
      },
      {
        "id": 112,
        "energized": 1,
        "u_pu": [
          1.0000000100640516,
          1.000000010064052,
          1.0000000100640516
        ],
        "u": [
          230.94011000004346,
          230.94011000004355,
          230.94011000004346
        ],
        "u_angle": [
          -3.6070509660883455e-05,
          -2.0944311729028566,
          2.094359031883535
        ],
        "p": [
          0.0,
          0.0,
          0.0
        ],
        "q": [
          0.0,
          0.0,
          0.0
        ]
      }
    ],
    "source": [
      {
        "id": 207,
        "energized": 1,
        "p": [
          393.3371191683295,
          393.3470529602459,
          393.3371187874935
        ],
        "q": [
          0.01021243921305726,
          0.0002790465936601411,
          0.005245307208308481
        ],
        "i": [
          0.06812793613843621,
          0.06812793613837509,
          0.06812793613820825
        ],
        "s": [
          393.3371193009053,
          393.3470529603449,
          393.3371188224676
        ],
        "pf": [
          0.9999999998106257,
          0.9999999998106256,
          0.9999999998106256
        ]
      }
    ],
    "transformer": [
      {
        "id": 208,
        "energized": 1,
        "loading": 0.0018730514432576098,
        "p_from": [
          393.3371191683295,
          393.3470529602459,
          393.3371187874935
        ],
        "q_from": [
          0.01021243921305726,
          0.0002790465936799065,
          0.005245307208297888
        ],
        "i_from": [
          0.06812793613843621,
          0.06812793613837509,
          0.06812793613820826
        ],
        "s_from": [
          393.3371193009053,
          393.3470529603449,
          393.3371188224676
        ],
        "p_to": [
          0.002186607966965775,
          -0.007747498817610485,
          0.002186629698293617
        ],
        "q_to": [
          -0.00311870663014513,
          0.00681540331756798,
          0.001848424881236158
        ],
        "i_to": [
          1.649294460184314e-05,
          4.468083862943827e-05,
          1.239810253679854e-05
        ],
        "s_to": [
          0.003808882440573532,
          0.01031859778797451,
          0.002863219163639511
        ]
      }
    ],
    "link": [
      {
        "id": 229,
        "energized": 1,
        "loading": 0.0,
        "p_from": [
          0.009933928395925965,
          -0.007361169324206875,
          0.0
        ],
        "q_from": [
          -0.004967412098343771,
          0.007118116679360186,
          0.0
        ],
        "i_from": [
          4.809329095243683e-05,
          4.433982340335132e-05,
          0.0
        ],
        "s_from": [
          0.01110666990281769,
          0.01023984369415032,
          0.0
        ],
        "p_to": [
          -0.009933928395925962,
          0.007361169324206877,
          0.0
        ],
        "q_to": [
          0.004967412098343769,
          -0.007118116679360187,
          0.0
        ],
        "i_to": [
          4.809329095243683e-05,
          4.433982340335132e-05,
          0.0
        ],
        "s_to": [
          0.01110666990281769,
          0.01023984369415032,
          0.0
        ]
      }
    ],
    "asym_voltage_sensor": [
      {
        "id": 329,
        "energized": 1,
        "u_residual": [
          -4.3433317209783434e-11,
          -4.348459621475366e-11,
          -4.348459621475366e-11
        ],
        "u_angle_residual": [
          null,
          null,
          null
        ]
      }
    ],
    "asym_power_sensor": [
      {
        "id": 466,
        "energized": 1,
        "p_residual": [
          -0.002186607966965775,
          0.007747498817610485,
          -0.002186629698293617
        ],
        "q_residual": [
          0.00311870663014513,
          -0.00681540331756798,
          -0.001848424881236158
        ]
      }
    ]
  }
}
